Circuit: * C:\Users\cmurr\OneDrive\Desktop\Circuits\MatLab from Class\Two-Port-Network Examples\Transfer Function plotting\spice_example.asc


Date: Mon Apr 11 10:25:22 2022
Total elapsed time: 0.045 seconds.

tnom = 27
temp = 27
method = trap
totiter = 0
traniter = 0
tranpoints = 0
accept = 0
rejected = 0
matrix size = 3
fillins = 0
solver = Normal

